Version 4
SHEET 1 880 680
WIRE 368 -16 336 -16
WIRE 480 -16 448 -16
WIRE 208 0 64 0
WIRE 64 64 64 0
WIRE 96 64 64 64
WIRE 336 64 336 -16
WIRE 336 64 320 64
WIRE 352 64 336 64
WIRE 208 80 208 0
WIRE 208 80 160 80
WIRE 480 80 480 -16
WIRE 480 80 416 80
WIRE -32 96 -80 96
WIRE 96 96 -32 96
WIRE 352 96 336 96
WIRE 208 112 208 80
WIRE 336 112 336 96
WIRE 336 112 208 112
FLAG -672 112 0
FLAG -672 32 V1
FLAG -144 96 V1
FLAG -896 96 0
FLAG -896 16 0.5
FLAG 384 48 0.5
FLAG 384 112 0
FLAG 240 64 0
FLAG -32 176 0
FLAG 128 112 0
FLAG 128 48 0.5
SYMBOL voltage -672 16 R0
WINDOW 123 0 0 Left 0
WINDOW 39 0 0 Left 0
SYMATTR InstName V1
SYMATTR Value SINE(2.5 0.5 13)
SYMBOL cap -80 80 R90
WINDOW 0 0 32 VBottom 2
WINDOW 3 32 32 VTop 2
SYMATTR InstName C1
SYMATTR Value 0.1µ
SYMBOL voltage -896 0 R0
WINDOW 123 0 0 Left 0
WINDOW 39 0 0 Left 0
SYMATTR InstName V2
SYMATTR Value 5
SYMBOL Opamps\\UniversalOpamp2 384 80 R0
SYMATTR InstName U1
SYMBOL res 336 48 R90
WINDOW 0 0 56 VBottom 2
WINDOW 3 32 56 VTop 2
SYMATTR InstName R1
SYMATTR Value 1K
SYMBOL res 464 -32 R90
WINDOW 0 0 56 VBottom 2
WINDOW 3 32 56 VTop 2
SYMATTR InstName R2
SYMATTR Value 10K
SYMBOL res -48 80 R0
SYMATTR InstName R3
SYMATTR Value 16K
SYMBOL Opamps\\UniversalOpamp2 128 80 R0
SYMATTR InstName U2
TEXT -706 136 Left 2 !.tran 500m
